<?xml version="1.0" encoding="UTF-8"?>

<configuration>

    <input>
        <net-file value="noida_sector18.net.xml"/>
        <route-files value="routes_heavy.rou.xml"/>
    </input>

    <time>
        <begin value="0"/>
        <end value="3600"/>
    </time>

</configuration>
