<?xml version="1.0" encoding="UTF-8"?>

<!-- generated on 2026-07-18 14:13:39 by Eclipse SUMO netconvert Version 1.12.0
<configuration xmlns:xsi="http://www.w3.org/2001/XMLSchema-instance" xsi:noNamespaceSchemaLocation="http://sumo.dlr.de/xsd/netconvertConfiguration.xsd">

    <input>
        <osm-files value="noida_sector18.osm"/>
    </input>

    <output>
        <output-file value="noida_sector18.net.xml"/>
    </output>

    <projection>
        <proj.utm value="true"/>
    </projection>

    <report>
        <aggregate-warnings value="5"/>
    </report>

</configuration>
-->

<net version="1.9" junctionCornerDetail="5" limitTurnSpeed="5.50" xmlns:xsi="http://www.w3.org/2001/XMLSchema-instance" xsi:noNamespaceSchemaLocation="http://sumo.dlr.de/xsd/net_file.xsd">

    <location netOffset="-722869.35,-3160489.78" convBoundary="0.00,0.00,6035.90,7285.51" origBoundary="77.279526,28.541039,77.340023,28.617879" projParameter="+proj=utm +zone=43 +ellps=WGS84 +datum=WGS84 +units=m +no_defs"/>

    <type id="highway.bridleway" priority="1" numLanes="1" speed="2.78" allow="pedestrian" oneway="1" width="2.00"/>
    <type id="highway.bus_guideway" priority="1" numLanes="1" speed="27.78" allow="bus" oneway="1"/>
    <type id="highway.cycleway" priority="1" numLanes="1" speed="8.33" allow="bicycle" oneway="0" width="1.00"/>
    <type id="highway.footway" priority="1" numLanes="1" speed="2.78" allow="pedestrian" oneway="1" width="2.00"/>
    <type id="highway.ford" priority="1" numLanes="1" speed="2.78" allow="army" oneway="0"/>
    <type id="highway.living_street" priority="2" numLanes="1" speed="2.78" disallow="tram rail_urban rail rail_electric rail_fast ship" oneway="0"/>
    <type id="highway.motorway" priority="14" numLanes="2" speed="39.44" allow="private emergency authority army vip passenger hov taxi bus coach delivery truck trailer motorcycle evehicle custom1 custom2" oneway="1"/>
    <type id="highway.motorway_link" priority="9" numLanes="1" speed="22.22" allow="private emergency authority army vip passenger hov taxi bus coach delivery truck trailer motorcycle evehicle custom1 custom2" oneway="1"/>
    <type id="highway.path" priority="1" numLanes="1" speed="2.78" allow="pedestrian bicycle" oneway="0" width="2.00"/>
    <type id="highway.pedestrian" priority="1" numLanes="1" speed="2.78" allow="pedestrian" oneway="1" width="2.00"/>
    <type id="highway.primary" priority="12" numLanes="2" speed="27.78" disallow="tram rail_urban rail rail_electric rail_fast ship" oneway="0"/>
    <type id="highway.primary_link" priority="7" numLanes="1" speed="22.22" disallow="tram rail_urban rail rail_electric rail_fast ship" oneway="0"/>
    <type id="highway.raceway" priority="15" numLanes="2" speed="83.33" allow="vip" oneway="0"/>
    <type id="highway.residential" priority="3" numLanes="1" speed="13.89" disallow="tram rail_urban rail rail_electric rail_fast ship" oneway="0"/>
    <type id="highway.secondary" priority="11" numLanes="1" speed="27.78" disallow="tram rail_urban rail rail_electric rail_fast ship" oneway="0"/>
    <type id="highway.secondary_link" priority="6" numLanes="1" speed="22.22" disallow="tram rail_urban rail rail_electric rail_fast ship" oneway="0"/>
    <type id="highway.service" priority="1" numLanes="1" speed="5.56" allow="pedestrian delivery bicycle" oneway="0"/>
    <type id="highway.stairs" priority="1" numLanes="1" speed="1.39" allow="pedestrian" oneway="1" width="2.00"/>
    <type id="highway.step" priority="1" numLanes="1" speed="1.39" allow="pedestrian" oneway="1" width="2.00"/>
    <type id="highway.steps" priority="1" numLanes="1" speed="1.39" allow="pedestrian" oneway="1" width="2.00"/>
    <type id="highway.tertiary" priority="10" numLanes="1" speed="22.22" disallow="tram rail_urban rail rail_electric rail_fast ship" oneway="0"/>
    <type id="highway.tertiary_link" priority="5" numLanes="1" speed="22.22" disallow="tram rail_urban rail rail_electric rail_fast ship" oneway="0"/>
    <type id="highway.track" priority="1" numLanes="1" speed="5.56" allow="pedestrian motorcycle moped bicycle" oneway="0"/>
    <type id="highway.trunk" priority="13" numLanes="2" speed="27.78" disallow="pedestrian bicycle tram rail_urban rail rail_electric rail_fast ship" oneway="0"/>
    <type id="highway.trunk_link" priority="8" numLanes="1" speed="22.22" disallow="pedestrian bicycle tram rail_urban rail rail_electric rail_fast ship" oneway="0"/>
    <type id="highway.unclassified" priority="4" numLanes="1" speed="13.89" disallow="tram rail_urban rail rail_electric rail_fast ship" oneway="0"/>
    <type id="highway.unsurfaced" priority="1" numLanes="1" speed="8.33" disallow="tram rail_urban rail rail_electric rail_fast ship" oneway="0"/>
    <type id="railway.highspeed" priority="21" numLanes="1" speed="69.44" allow="rail_fast" oneway="1"/>
    <type id="railway.light_rail" priority="19" numLanes="1" speed="27.78" allow="rail_urban" oneway="1"/>
    <type id="railway.preserved" priority="16" numLanes="1" speed="27.78" allow="rail" oneway="1"/>
    <type id="railway.rail" priority="20" numLanes="1" speed="44.44" allow="rail" oneway="1"/>
    <type id="railway.subway" priority="18" numLanes="1" speed="27.78" allow="rail_urban" oneway="1"/>
    <type id="railway.tram" priority="17" numLanes="1" speed="13.89" allow="tram" oneway="1"/>

    <edge id=":10047814937_0" function="internal">
        <lane id=":10047814937_0_0" index="0" disallow="tram rail_urban rail rail_electric rail_fast ship" speed="6.34" length="8.95" shape="4194.81,2328.32 4196.75,2329.82 4198.69,2330.29 4200.61,2329.72 4202.54,2328.12"/>
    </edge>
    <edge id=":10047814937_1" function="internal">
        <lane id=":10047814937_1_0" index="0" disallow="tram rail_urban rail rail_electric rail_fast ship" speed="22.22" length="11.09" shape="4194.81,2328.32 4202.51,2336.31"/>
    </edge>
    <edge id=":10047814938_0" function="internal">
        <lane id=":10047814938_0_0" index="0" disallow="tram rail_urban rail rail_electric rail_fast ship" speed="22.22" length="10.42" shape="4210.18,2327.73 4203.08,2320.10"/>
    </edge>
    <edge id=":10047814938_1" function="internal">
        <lane id=":10047814938_1_0" index="0" disallow="tram rail_urban rail rail_electric rail_fast ship" speed="6.78" length="9.04" shape="4210.18,2327.73 4208.79,2325.73 4208.30,2323.72 4208.72,2321.68 4210.05,2319.61"/>
    </edge>
    <edge id=":10047814938_2" function="internal">
        <lane id=":10047814938_2_0" index="0" disallow="tram rail_urban rail rail_electric rail_fast ship" speed="6.56" length="8.60" shape="4202.85,2327.78 4204.23,2325.79 4204.73,2323.85 4204.34,2321.96 4203.08,2320.10"/>
    </edge>
    <edge id=":10047814938_3" function="internal">
        <lane id=":10047814938_3_0" index="0" disallow="tram rail_urban rail rail_electric rail_fast ship" speed="13.89" length="10.88" shape="4202.85,2327.78 4210.05,2319.61"/>
    </edge>
    <edge id=":10047814939_0" function="internal">
        <lane id=":10047814939_0_0" index="0" allow="pedestrian delivery bicycle" speed="5.56" length="6.49" shape="4247.45,2280.89 4242.73,2276.43"/>
    </edge>
    <edge id=":10047814939_1" function="internal">
        <lane id=":10047814939_1_0" index="0" allow="pedestrian delivery bicycle" speed="6.24" length="7.96" shape="4247.45,2280.89 4246.69,2279.63 4246.75,2278.04 4247.62,2276.13 4249.31,2273.90"/>
    </edge>
    <edge id=":10047814939_2" function="internal">
        <lane id=":10047814939_2_0" index="0" allow="pedestrian delivery bicycle" speed="3.65" length="4.67" shape="4247.45,2280.89 4247.12,2279.48 4247.38,2278.63 4248.22,2278.32 4249.64,2278.56"/>
    </edge>
    <edge id=":10047814939_3" function="internal">
        <lane id=":10047814939_3_0" index="0" allow="pedestrian delivery bicycle" speed="5.00" length="5.05" shape="4244.93,2274.11 4246.06,2274.91 4247.17,2275.14 4248.26,2274.80 4249.31,2273.90"/>
    </edge>
    <edge id=":10047814939_4" function="internal">
        <lane id=":10047814939_4_0" index="0" allow="pedestrian delivery bicycle" speed="5.56" length="6.49" shape="4244.93,2274.11 4249.64,2278.56"/>
    </edge>
    <edge id=":10047814939_5" function="internal">
        <lane id=":10047814939_5_0" index="0" allow="pedestrian delivery bicycle" speed="3.65" length="4.67" shape="4244.93,2274.11 4245.25,2275.51 4244.99,2276.37 4244.15,2276.68 4242.73,2276.43"/>
    </edge>
    <edge id=":10047814939_6" function="internal">
        <lane id=":10047814939_6_0" index="0" allow="pedestrian delivery bicycle" speed="5.25" length="5.30" shape="4243.06,2281.12 4243.82,2279.92 4244.02,2278.74 4243.65,2277.58 4242.73,2276.43"/>
    </edge>
    <edge id=":10047814939_7" function="internal">
        <lane id=":10047814939_7_0" index="0" disallow="tram rail_urban rail rail_electric rail_fast ship" speed="13.89" length="9.55" shape="4243.06,2281.12 4249.31,2273.90"/>
    </edge>
    <edge id=":10047814939_8" function="internal">
        <lane id=":10047814939_8_0" index="0" allow="pedestrian delivery bicycle" speed="6.03" length="7.89" shape="4243.06,2281.12 4245.03,2279.14 4246.79,2278.06 4248.32,2277.86 4249.64,2278.56"/>
    </edge>
    <edge id=":10047814941_0" function="internal">
        <lane id=":10047814941_0_0" index="0" disallow="tram rail_urban rail rail_electric rail_fast ship" speed="13.89" length="13.05" shape="4356.22,2158.91 4343.18,2159.51"/>
    </edge>
    <edge id=":10047814941_1" function="internal">
        <lane id=":10047814941_1_0" index="0" disallow="tram rail_urban rail rail_electric rail_fast ship" speed="7.39" length="2.63" shape="4356.22,2158.91 4353.76,2158.52 4353.65,2158.43"/>
    </edge>
    <edge id=":10047814941_2" function="internal">
        <lane id=":10047814941_2_0" index="0" disallow="tram rail_urban rail rail_electric rail_fast ship" speed="3.65" length="1.44" shape="4356.22,2158.91 4354.97,2158.19"/>
    </edge>
    <edge id=":10047814941_9" function="internal">
        <lane id=":10047814941_9_0" index="0" disallow="tram rail_urban rail rail_electric rail_fast ship" speed="7.39" length="9.17" shape="4353.65,2158.43 4351.90,2156.97 4350.63,2154.27 4349.96,2150.42"/>
    </edge>
    <edge id=":10047814941_10" function="internal">
        <lane id=":10047814941_10_0" index="0" disallow="tram rail_urban rail rail_electric rail_fast ship" speed="3.65" length="3.23" shape="4354.97,2158.19 4354.51,2157.42 4354.86,2156.60 4356.00,2155.72"/>
    </edge>
    <edge id=":10047814941_3" function="internal">
        <lane id=":10047814941_3_0" index="0" disallow="tram rail_urban rail rail_electric rail_fast ship" speed="6.81" length="10.40" shape="4343.08,2156.31 4346.27,2155.86 4348.48,2154.73 4349.71,2152.91 4349.96,2150.42"/>
    </edge>
    <edge id=":10047814941_4" function="internal">
        <lane id=":10047814941_4_0" index="0" disallow="tram rail_urban rail rail_electric rail_fast ship" speed="13.89" length="12.94" shape="4343.08,2156.31 4356.00,2155.72"/>
    </edge>
    <edge id=":10047814941_5" function="internal">
        <lane id=":10047814941_5_0" index="0" disallow="tram rail_urban rail rail_electric rail_fast ship" speed="3.65" length="1.44" shape="4343.08,2156.31 4344.30,2157.08"/>
    </edge>
    <edge id=":10047814941_11" function="internal">
        <lane id=":10047814941_11_0" index="0" disallow="tram rail_urban rail rail_electric rail_fast ship" speed="3.65" length="3.23" shape="4344.30,2157.08 4344.73,2157.86 4344.35,2158.67 4343.18,2159.51"/>
    </edge>
    <edge id=":10047814941_6" function="internal">
        <lane id=":10047814941_6_0" index="0" disallow="tram rail_urban rail rail_electric rail_fast ship" speed="5.24" length="8.63" shape="4344.11,2165.11 4345.94,2162.59 4346.40,2160.82 4345.47,2159.79 4343.18,2159.51"/>
    </edge>
    <edge id=":10047814941_7" function="internal">
        <lane id=":10047814941_7_0" index="0" disallow="tram rail_urban rail rail_electric rail_fast ship" speed="13.03" length="16.23" shape="4344.11,2165.11 4346.90,2161.41 4348.81,2157.72 4349.83,2154.06 4349.96,2150.42"/>
    </edge>
    <edge id=":10047814941_8" function="internal">
        <lane id=":10047814941_8_0" index="0" disallow="tram rail_urban rail rail_electric rail_fast ship" speed="12.87" length="15.39" shape="4344.11,2165.11 4347.84,2161.10 4351.06,2158.20 4353.78,2156.40 4356.00,2155.72"/>
    </edge>
    <edge id=":10277032159_0" function="internal">
        <lane id=":10277032159_0_0" index="0" disallow="tram rail_urban rail rail_electric rail_fast ship" speed="3.65" length="4.67" shape="5285.33,1738.81 5286.77,1738.68 5287.58,1739.05 5287.78,1739.92 5287.35,1741.30"/>
    </edge>
    <edge id=":10304107614_0" function="internal">
        <lane id=":10304107614_0_0" index="0" allow="pedestrian delivery bicycle" speed="5.56" length="9.36" shape="4663.76,2066.42 4657.07,2072.97"/>
    </edge>
    <edge id=":10304107614_1" function="internal">
        <lane id=":10304107614_1_0" index="0" allow="pedestrian delivery bicycle" speed="5.56" length="10.16" shape="4663.76,2066.42 4661.59,2067.97 4659.35,2068.47 4657.07,2067.92 4654.72,2066.31"/>
    </edge>
    <edge id=":10304107614_2" function="internal">
        <lane id=":10304107614_2_0" index="0" allow="pedestrian delivery bicycle" speed="3.65" length="4.67" shape="4663.76,2066.42 4662.35,2066.68 4661.50,2066.38 4661.23,2065.53 4661.54,2064.12"/>
    </edge>
    <edge id=":10304107614_3" function="internal">
        <lane id=":10304107614_3_0" index="0" allow="pedestrian delivery bicycle" speed="5.26" length="5.25" shape="4656.87,2063.93 4658.10,2064.79 4659.29,2065.11 4660.44,2064.89 4661.54,2064.12"/>
    </edge>
    <edge id=":10304107614_4" function="internal">
        <lane id=":10304107614_4_0" index="0" allow="pedestrian delivery bicycle" speed="5.56" length="10.44" shape="4656.87,2063.93 4658.71,2066.15 4659.36,2068.39 4658.82,2070.67 4657.07,2072.97"/>
    </edge>
    <edge id=":10304107614_5" function="internal">
        <lane id=":10304107614_5_0" index="0" allow="pedestrian delivery bicycle" speed="3.65" length="4.67" shape="4656.87,2063.93 4657.22,2065.33 4656.98,2066.19 4656.15,2066.52 4654.72,2066.31"/>
    </edge>
    <edge id=":10304107614_6" function="internal">
        <lane id=":10304107614_6_0" index="0" allow="pedestrian delivery bicycle" speed="4.98" length="5.07" shape="4654.82,2070.69 4655.67,2069.58 4655.93,2068.47 4655.62,2067.38 4654.72,2066.31"/>
    </edge>
    <edge id=":10304107614_7" function="internal">
        <lane id=":10304107614_7_0" index="0" allow="pedestrian delivery bicycle" speed="5.56" length="9.40" shape="4654.82,2070.69 4661.54,2064.12"/>
    </edge>
    <edge id=":10304107614_8" function="internal">
        <lane id=":10304107614_8_0" index="0" allow="pedestrian delivery bicycle" speed="3.65" length="4.67" shape="4654.82,2070.69 4656.24,2070.42 4657.09,2070.70 4657.36,2071.55 4657.07,2072.97"/>
    </edge>
    <edge id=":10304107615_0" function="internal">
        <lane id=":10304107615_0_0" index="0" allow="pedestrian delivery bicycle" speed="5.21" length="5.20" shape="4651.92,2063.77 4650.70,2062.93 4649.52,2062.63 4648.39,2062.88 4647.30,2063.67"/>
    </edge>
    <edge id=":10304107615_1" function="internal">
        <lane id=":10304107615_1_0" index="0" allow="pedestrian delivery bicycle" speed="5.56" length="10.41" shape="4651.92,2063.77 4650.08,2061.57 4649.43,2059.33 4649.96,2057.06 4651.68,2054.75"/>
    </edge>
    <edge id=":10304107615_2" function="internal">
        <lane id=":10304107615_2_0" index="0" allow="pedestrian delivery bicycle" speed="3.65" length="4.67" shape="4651.92,2063.77 4651.56,2062.38 4651.80,2061.52 4652.64,2061.19 4654.06,2061.40"/>
    </edge>
    <edge id=":10304107615_3" function="internal">
        <lane id=":10304107615_3_0" index="0" allow="pedestrian delivery bicycle" speed="4.99" length="5.06" shape="4653.95,2057.01 4653.11,2058.13 4652.85,2059.24 4653.17,2060.33 4654.06,2061.40"/>
    </edge>
    <edge id=":10304107615_4" function="internal">
        <lane id=":10304107615_4_0" index="0" allow="pedestrian delivery bicycle" speed="5.56" length="9.41" shape="4653.95,2057.01 4647.30,2063.67"/>
    </edge>
    <edge id=":10304107615_5" function="internal">
        <lane id=":10304107615_5_0" index="0" allow="pedestrian delivery bicycle" speed="3.65" length="4.67" shape="4653.95,2057.01 4652.54,2057.30 4651.69,2057.02 4651.40,2056.17 4651.68,2054.75"/>
    </edge>
    <edge id=":10304107615_6" function="internal">
        <lane id=":10304107615_6_0" index="0" allow="pedestrian delivery bicycle" speed="5.56" length="9.41" shape="4645.04,2061.41 4651.68,2054.75"/>
    </edge>
    <edge id=":10304107615_7" function="internal">
        <lane id=":10304107615_7_0" index="0" allow="pedestrian delivery bicycle" speed="5.56" length="10.18" shape="4645.04,2061.41 4647.21,2059.80 4649.44,2059.26 4651.72,2059.80 4654.06,2061.40"/>
    </edge>
    <edge id=":10304107615_8" function="internal">
        <lane id=":10304107615_8_0" index="0" allow="pedestrian delivery bicycle" speed="3.65" length="4.67" shape="4645.04,2061.41 4646.45,2061.13 4647.30,2061.41 4647.59,2062.26 4647.30,2063.67"/>
    </edge>
    <edge id=":10304107616_0" function="internal">
        <lane id=":10304107616_0_0" index="0" allow="pedestrian delivery bicycle" speed="3.65" length="4.67" shape="4669.31,2037.09 4670.73,2036.80 4671.57,2037.08 4671.86,2037.93 4671.58,2039.35"/>
    </edge>
    <edge id=":10304107617_0" function="internal">
        <lane id=":10304107617_0_0" index="0" allow="pedestrian delivery bicycle" speed="3.65" length="4.67" shape="4626.06,2084.95 4624.64,2085.24 4623.79,2084.95 4623.51,2084.11 4623.79,2082.69"/>
    </edge>
    <edge id=":10538697166_0" function="internal">
        <lane id=":10538697166_0_0" index="0" disallow="tram rail_urban rail rail_electric rail_fast ship" speed="22.22" length="11.39" shape="4720.37,1988.30 4710.87,1982.02"/>
    </edge>
    <edge id=":10538697166_1" function="internal">
        <lane id=":10538697166_1_0" index="0" allow="pedestrian delivery bicycle" speed="10.07" length="10.68" shape="4720.37,1988.30 4717.98,1986.44 4716.19,1984.41 4715.00,1982.20 4714.41,1979.83"/>
    </edge>
    <edge id=":10538697166_2" function="internal">
        <lane id=":10538697166_2_0" index="0" allow="pedestrian delivery bicycle" speed="5.82" length="10.78" shape="4717.59,1979.45 4717.51,1982.46 4716.36,1983.90 4714.15,1983.75 4710.87,1982.02"/>
    </edge>
    <edge id=":10538697166_3" function="internal">
        <lane id=":10538697166_3_0" index="0" allow="pedestrian delivery bicycle" speed="3.65" length="4.67" shape="4717.59,1979.45 4716.94,1980.74 4716.19,1981.23 4715.35,1980.93 4714.41,1979.83"/>
    </edge>
    <edge id=":10538697169_0" function="internal">
        <lane id=":10538697169_0_0" index="0" allow="pedestrian delivery bicycle" speed="3.65" length="4.67" shape="4717.06,1946.49 4718.28,1945.71 4719.17,1945.67 4719.74,1946.36 4719.98,1947.78"/>
    </edge>
    <edge id=":10657429423_0" function="internal">
        <lane id=":10657429423_0_0" index="0" allow="pedestrian delivery bicycle" speed="5.56" length="9.36" shape="3788.61,1988.79 3780.73,1983.75"/>
    </edge>
    <edge id=":10657429423_1" function="internal">
        <lane id=":10657429423_1_0" index="0" allow="pedestrian delivery bicycle" speed="5.56" length="10.18" shape="3788.61,1988.79 3786.51,1986.96 3785.50,1984.90 3785.58,1982.60 3786.76,1980.07"/>
    </edge>
    <edge id=":10657429423_2" function="internal">
        <lane id=":10657429423_2_0" index="0" allow="pedestrian delivery bicycle" speed="3.65" length="4.67" shape="3788.61,1988.79 3788.04,1987.47 3788.14,1986.58 3788.91,1986.13 3790.35,1986.11"/>
    </edge>
    <edge id=":10657429423_3" function="internal">
        <lane id=":10657429423_3_0" index="0" allow="pedestrian delivery bicycle" speed="5.04" length="5.00" shape="3789.44,1981.82 3788.86,1983.06 3788.82,1984.19 3789.31,1985.21 3790.35,1986.11"/>
    </edge>
    <edge id=":10657429423_4" function="internal">
        <lane id=":10657429423_4_0" index="0" allow="pedestrian delivery bicycle" speed="5.56" length="10.14" shape="3789.44,1981.82 3787.61,1983.92 3785.54,1984.94 3783.25,1984.88 3780.73,1983.75"/>
    </edge>
    <edge id=":10657429423_5" function="internal">
        <lane id=":10657429423_5_0" index="0" allow="pedestrian delivery bicycle" speed="3.65" length="4.67" shape="3789.44,1981.82 3788.11,1982.39 3787.22,1982.28 3786.77,1981.51 3786.76,1980.07"/>
    </edge>
    <edge id=":10657429423_6" function="internal">
        <lane id=":10657429423_6_0" index="0" allow="pedestrian delivery bicycle" speed="5.07" length="5.03" shape="3782.45,1981.05 3783.69,1981.60 3784.82,1981.63 3785.85,1981.12 3786.76,1980.07"/>
    </edge>
    <edge id=":10657429423_7" function="internal">
        <lane id=":10657429423_7_0" index="0" allow="pedestrian delivery bicycle" speed="5.56" length="9.39" shape="3782.45,1981.05 3790.35,1986.11"/>
    </edge>
    <edge id=":10657429423_8" function="internal">
        <lane id=":10657429423_8_0" index="0" allow="pedestrian delivery bicycle" speed="3.65" length="4.67" shape="3782.45,1981.05 3783.03,1982.36 3782.94,1983.25 3782.17,1983.71 3780.73,1983.75"/>
    </edge>
    <edge id=":10657429424_0" function="internal">
        <lane id=":10657429424_0_0" index="0" allow="pedestrian delivery bicycle" speed="5.33" length="5.34" shape="3839.28,1910.79 3838.01,1910.36 3836.84,1910.46 3835.75,1911.12 3834.75,1912.31"/>
    </edge>
    <edge id=":10657429424_1" function="internal">
        <lane id=":10657429424_1_0" index="0" allow="pedestrian delivery bicycle" speed="5.56" length="9.42" shape="3839.28,1910.79 3830.99,1906.31"/>
    </edge>
    <edge id=":10657429424_2" function="internal">
        <lane id=":10657429424_2_0" index="0" allow="pedestrian delivery bicycle" speed="3.65" length="4.67" shape="3839.28,1910.79 3838.60,1909.52 3838.63,1908.62 3839.36,1908.11 3840.80,1907.97"/>
    </edge>
    <edge id=":10657429424_3" function="internal">
        <lane id=":10657429424_3_0" index="0" allow="pedestrian delivery bicycle" speed="5.56" length="9.42" shape="3832.51,1903.50 3840.80,1907.97"/>
    </edge>
    <edge id=":10657429424_4" function="internal">
        <lane id=":10657429424_4_0" index="0" allow="pedestrian delivery bicycle" speed="5.56" length="10.58" shape="3832.51,1903.50 3834.86,1905.25 3836.02,1907.30 3835.98,1909.65 3834.75,1912.31"/>
    </edge>
    <edge id=":10657429424_5" function="internal">
        <lane id=":10657429424_5_0" index="0" allow="pedestrian delivery bicycle" speed="3.65" length="4.67" shape="3832.51,1903.50 3833.18,1904.77 3833.16,1905.67 3832.42,1906.18 3830.99,1906.31"/>
    </edge>
    <edge id=":10657429424_6" function="internal">
        <lane id=":10657429424_6_0" index="0" allow="pedestrian delivery bicycle" speed="4.96" length="5.10" shape="3832.07,1910.56 3832.66,1909.28 3832.68,1908.15 3832.12,1907.16 3830.99,1906.31"/>
    </edge>
    <edge id=":10657429424_7" function="internal">
        <lane id=":10657429424_7_0" index="0" allow="pedestrian delivery bicycle" speed="5.56" length="10.20" shape="3832.07,1910.56 3833.93,1908.38 3836.01,1907.22 3838.30,1907.08 3840.80,1907.97"/>
    </edge>
    <edge id=":10657429424_8" function="internal">
        <lane id=":10657429424_8_0" index="0" allow="pedestrian delivery bicycle" speed="3.65" length="4.67" shape="3832.07,1910.56 3833.39,1910.00 3834.28,1910.10 3834.73,1910.87 3834.75,1912.31"/>
    </edge>
    <edge id=":10669170333_0" function="internal">
        <lane id=":10669170333_0_0" index="0" disallow="tram rail_urban rail rail_electric rail_fast ship" speed="13.89" length="4.97" shape="4646.39,2002.43 4642.94,1998.86"/>
    </edge>
    <edge id=":10669170333_1" function="internal">
        <lane id=":10669170333_1_0" index="0" disallow="tram rail_urban rail rail_electric rail_fast ship" speed="13.89" length="4.90" shape="4645.26,1996.66 4648.67,2000.18"/>
    </edge>
    <edge id=":10687736895_0" function="internal">
        <lane id=":10687736895_0_0" index="0" allow="pedestrian delivery bicycle" speed="6.08" length="7.76" shape="4296.77,1832.32 4295.99,1831.14 4296.00,1829.62 4296.82,1827.73 4298.45,1825.50"/>
    </edge>
    <edge id=":10687736895_1" function="internal">
        <lane id=":10687736895_1_0" index="0" allow="pedestrian delivery bicycle" speed="3.65" length="4.67" shape="4296.77,1832.32 4296.37,1830.93 4296.58,1830.06 4297.40,1829.71 4298.83,1829.87"/>
    </edge>
    <edge id=":10687736895_2" function="internal">
        <lane id=":10687736895_2_0" index="0" disallow="tram rail_urban rail rail_electric rail_fast ship" speed="22.22" length="9.40" shape="4292.40,1832.70 4298.45,1825.50"/>
    </edge>
    <edge id=":10687736895_3" function="internal">
        <lane id=":10687736895_3_0" index="0" allow="pedestrian delivery bicycle" speed="6.08" length="7.76" shape="4292.40,1832.70 4294.32,1830.71 4296.04,1829.58 4297.54,1829.30 4298.83,1829.87"/>
    </edge>
    <edge id=":10713519744_0" function="internal">
        <lane id=":10713519744_0_0" index="0" disallow="tram rail_urban rail rail_electric rail_fast ship" speed="5.93" length="8.25" shape="4679.76,2153.36 4678.66,2152.06 4678.55,2150.46 4679.43,2148.58 4681.30,2146.39"/>
    </edge>
    <edge id=":10713519744_1" function="internal">
        <lane id=":10713519744_1_0" index="0" disallow="tram rail_urban rail rail_electric rail_fast ship" speed="3.65" length="4.67" shape="4679.76,2153.36 4679.26,2152.01 4679.40,2151.12 4680.20,2150.71 4681.64,2150.76"/>
    </edge>
    <edge id=":10713519744_2" function="internal">
        <lane id=":10713519744_2_0" index="0" disallow="tram rail_urban rail rail_electric rail_fast ship" speed="27.78" length="9.49" shape="4672.30,2150.78 4679.06,2144.12"/>
        <lane id=":10713519744_2_1" index="1" disallow="tram rail_urban rail rail_electric rail_fast ship" speed="27.78" length="9.49" shape="4674.54,2153.06 4681.30,2146.39"/>
    </edge>
    <edge id=":10713519744_4" function="internal">
        <lane id=":10713519744_4_0" index="0" disallow="tram rail_urban rail rail_electric rail_fast ship" speed="6.59" length="8.09" shape="4674.54,2153.06 4676.62,2151.31 4678.49,2150.34 4680.16,2150.16 4681.64,2150.76"/>
    </edge>
    <edge id=":10713519746_0" function="internal">
        <lane id=":10713519746_0_0" index="0" disallow="tram rail_urban rail rail_electric rail_fast ship" speed="3.65" length="4.67" shape="4729.08,2185.44 4729.57,2186.79 4729.41,2187.68 4728.62,2188.08 4727.18,2188.01"/>
    </edge>
    <edge id=":10764115129_0" function="internal">
        <lane id=":10764115129_0_0" index="0" disallow="pedestrian bicycle tram rail_urban rail rail_electric rail_fast ship" speed="27.78" length="4.99" shape="3828.22,1093.37 3825.58,1097.59"/>
        <lane id=":10764115129_0_1" index="1" disallow="pedestrian bicycle tram rail_urban rail rail_electric rail_fast ship" speed="27.78" length="4.99" shape="3825.51,1091.67 3822.87,1095.90"/>
        <lane id=":10764115129_0_2" index="2" disallow="pedestrian bicycle tram rail_urban rail rail_electric rail_fast ship" speed="27.78" length="4.99" shape="3822.80,1089.97 3820.15,1094.21"/>
    </edge>
    <edge id=":10883721635_0" function="internal">
        <lane id=":10883721635_0_0" index="0" allow="pedestrian delivery bicycle" speed="5.40" length="5.43" shape="3626.53,1567.50 3625.06,1566.88 3623.76,1566.77 3622.64,1567.19 3621.70,1568.13"/>
    </edge>
    <edge id=":10883721635_1" function="internal">
        <lane id=":10883721635_1_0" index="0" allow="pedestrian delivery bicycle" speed="5.56" length="10.67" shape="3626.53,1567.50 3624.19,1565.69 3623.07,1563.59 3623.19,1561.23 3624.55,1558.59"/>
    </edge>
    <edge id=":10883721635_2" function="internal">
        <lane id=":10883721635_2_0" index="0" allow="pedestrian delivery bicycle" speed="3.65" length="4.67" shape="3626.53,1567.50 3625.88,1566.22 3625.93,1565.32 3626.67,1564.82 3628.11,1564.72"/>
    </edge>
    <edge id=":10883721635_3" function="internal">
        <lane id=":10883721635_3_0" index="0" allow="pedestrian delivery bicycle" speed="4.94" length="5.12" shape="3627.16,1560.44 3626.51,1561.71 3626.45,1562.84 3626.98,1563.85 3628.11,1564.72"/>
    </edge>
    <edge id=":10883721635_4" function="internal">
        <lane id=":10883721635_4_0" index="0" allow="pedestrian delivery bicycle" speed="5.56" length="9.43" shape="3627.16,1560.44 3621.70,1568.13"/>
    </edge>
    <edge id=":10883721635_5" function="internal">
        <lane id=":10883721635_5_0" index="0" allow="pedestrian delivery bicycle" speed="3.65" length="4.67" shape="3627.16,1560.44 3625.81,1560.95 3624.93,1560.82 3624.51,1560.03 3624.55,1558.59"/>
    </edge>
    <edge id=":10883721635_6" function="internal">
        <lane id=":10883721635_6_0" index="0" allow="pedestrian delivery bicycle" speed="5.56" length="9.43" shape="3619.09,1566.28 3624.55,1558.59"/>
    </edge>
    <edge id=":10883721635_7" function="internal">
        <lane id=":10883721635_7_0" index="0" allow="pedestrian delivery bicycle" speed="5.56" length="10.22" shape="3619.09,1566.28 3620.92,1564.40 3623.03,1563.51 3625.43,1563.62 3628.11,1564.72"/>
    </edge>
    <edge id=":10883721635_8" function="internal">
        <lane id=":10883721635_8_0" index="0" allow="pedestrian delivery bicycle" speed="3.65" length="4.67" shape="3619.09,1566.28 3620.44,1565.77 3621.32,1565.90 3621.74,1566.69 3621.70,1568.13"/>
    </edge>
    <edge id=":10883721640_0" function="internal">
        <lane id=":10883721640_0_0" index="0" allow="pedestrian delivery bicycle" speed="5.22" length="5.22" shape="3717.76,1555.90 3716.41,1555.87 3715.34,1556.31 3714.54,1557.22 3714.01,1558.62"/>
    </edge>
    <edge id=":10883721640_1" function="internal">
        <lane id=":10883721640_1_0" index="0" allow="pedestrian delivery bicycle" speed="5.56" length="9.41" shape="3717.76,1555.90 3708.51,1554.18"/>
    </edge>