<?xml version="1.0" encoding="UTF-8"?>

<!-- generated on 2026-07-18 14:18:31 by Eclipse SUMO duarouter Version 1.12.0
<configuration xmlns:xsi="http://www.w3.org/2001/XMLSchema-instance" xsi:noNamespaceSchemaLocation="http://sumo.dlr.de/xsd/duarouterConfiguration.xsd">

    <input>
        <net-file value="noida_sector18.net.xml"/>
        <route-files value="trips.trips.xml"/>
    </input>

    <output>
        <output-file value="routes.rou.xml"/>
        <alternatives-output value="routes.rou.alt.xml"/>
    </output>

    <time>
        <begin value="0"/>
        <end value="3600"/>
    </time>

    <report>
        <no-warnings value="true"/>
        <ignore-errors value="true"/>
        <no-step-log value="true"/>
    </report>

</configuration>
-->

<routes xmlns:xsi="http://www.w3.org/2001/XMLSchema-instance" xsi:noNamespaceSchemaLocation="http://sumo.dlr.de/xsd/routes_file.xsd">
    <vehicle id="0" depart="0.00">
        <route edges="545541215#0 69665373#4 1200738847 -1200738847"/>
    </vehicle>
    <vehicle id="1" depart="2.00">
        <route edges="-69969726#0 69969726#0 -69969731#2 -69969731#1 -69969731#0 -1202737649 -1202737647 96192457#0 96192457#1 96192457#2 96192457#3 570179511 982712824 570179508#0 570179508#1 570179508#2 1200738846 -69665373#4 545541215#1 545541215#2 545541215#3 545541215#4 545541215#5 -69665337"/>
    </vehicle>
    <vehicle id="2" depart="4.00">
        <route edges="66205283 176496278#2 1295670837 66205250 777606938 66205266#0 66205266#1 66205266#2 570199919 570199918#0 570199918#1 570199918#2 570199918#3 570199918#4 570199918#5 170673296#0 170673296#1 170673296#2 570179509#1 570179509#2 570179509#3 570179509#4 570179509#5 570179509#6 -1408725971#0 96192457#1 96192457#2 96192457#3 570179511 982712824 570179508#0 570179508#1"/>
    </vehicle>
    <vehicle id="3" depart="6.00">
        <route edges="69969734#1 -69969734#1 -69969734#0 -1432243363 -171773154 96192457#2 96192457#3 570179511 982712824 570179508#0 570179508#1 570179508#2 1200738846 1200738847 69665391#6 1238231835#0 1238231835#1 1238231835#2 171771937#0 171771937#1 171771905 -171771899#0"/>
    </vehicle>
    <vehicle id="4" depart="8.00">
        <route edges="1249801058 28123923#0 28123923#1 28123923#2 28123923#3 1097335710#0 1097335710#1 369267148 369267150#4 369267150#5 369267150#6 369267150#7 369267150#8 369267150#9 570199918#3 570199918#4 570199918#5 669404375 170673281 505056937 1323832785#0 69969739 689120833#0 -1202737654 -1202737650#1 -1202737650#0"/>
    </vehicle>
    <vehicle id="7" depart="14.00">
        <route edges="545547620#0 545547619 232638532#5 232638532#6 609095402 570179509#0 570179509#1 570179509#2 570179509#3 570179509#4 570179509#5 570179509#6 570179509#7 570179509#8 570179509#9 570179509#10 1426831130 1426831127#0 1426831128 1113593720#0 1113593720#1 1113593720#2 1202737647 -171773160#2 -171773160#1 -171773160#0 171773160#0"/>
    </vehicle>
    <vehicle id="8" depart="16.00">
        <route edges="-69665325 -1238232356#1 -1238232356#0 -1097172693#0 -1097172694 689120835#1 505056931 982712825 170673280 170673278 609095409#0 686856047 170673303#0 170673303#1 170673303#2 170673303#3 170673303#4 777606947#0 777606947#1 777606942 777606943#0 777606943#1 1295670836 777606944 66205249 570153676 609095416 176496278#0 176496278#1 176496278#2 1295670837 66205250 777606938 66205266#0 66205266#1 66205266#2 570199920#0 570199920#1 1249801058 28123923#0 28123923#1 28123923#2"/>
    </vehicle>
    <vehicle id="9" depart="18.00">
        <route edges="69665337 -545541215#5 -545541215#4 -545541215#3 -545541215#2 -545541215#1 69665373#4 1200738847 69665391#6 69665391#7 69665391#8 545547620#0 545547619 232638532#5 232638532#6 609095402 570179509#0 570179509#1 570179509#2 570179509#3 570179509#4 570179509#5 -69968967 28123974#1 -43306732 369267150#2 369267150#3 -369267148 -1097335710#1"/>
    </vehicle>
    <vehicle id="10" depart="20.00">
        <route edges="69665335#2 69665328#1 69665328#2 545541210 545541215#0 69665373#4 1200738847 69665391#6 69665391#7 69665391#8 545547620#0 545547619 232638532#5 232638532#6 609095402 669404381#0 669404381#1 669404381#2 570179510#0 570179510#1 570179510#2 570179510#3"/>
    </vehicle>
    <vehicle id="11" depart="22.00">
        <route edges="-706618139 -1417035704#2 -1417035704#1 28124160#0 28124160#1 28124160#2 -28124160#2 -28124160#1"/>
    </vehicle>
    <vehicle id="12" depart="24.00">
        <route edges="753750951#3 176496273 66205280 71859728#2 66205253 66205276 66205283 176496278#2 1295670837 66205250 777606938 66205266#0 66205266#1 66205266#2 570199919 570199918#0 570199918#1 570199918#2 570199918#3 570199918#4 570199918#5 170673296#0 170673296#1 170673296#2 570179509#1 -706612300"/>
    </vehicle>
    <vehicle id="14" depart="28.00">
        <route edges="69665391#4 69665391#5 69665391#6 69665391#7 69665391#8 545547620#0 545547619 232638532#5 232638532#6 609095402 570179509#0 570179509#1 570179509#2 570179509#3 570179509#4 570179509#5 570179509#6 1408725971#1 369267150#0 -28123954#2 -28123954#1 28123954#1 28123954#2"/>
    </vehicle>
    <vehicle id="15" depart="30.00">
        <route edges="69665335#3 69665335#4 69665340#3 -69665349#2 -69665349#1 -69665349#0 -1097172694 689120835#1 505056931 982712825 170673280 170673278 609095409#0 609095409#1"/>
    </vehicle>
    <vehicle id="16" depart="32.00">
        <route edges="171773158#2 -171773158#2 -171773158#1 -171773158#0 -69969731#0 -1202737649 -1202737647 96192457#0 96192457#1 96192457#2 96192457#3 570179511 982712824 570179508#0 570179508#1 570179508#2 570179508#3 545547620#0 545547619 232638532#5 232638532#6 609095402 669404381#0 669404381#1 669404381#2 570179510#0 570179510#1 570179510#2 570179510#3 570179510#4 1295671251#0 1295671251#1 1295671251#2 1295671251#3 1295671251#4 170673303#0 170673303#1 170673303#2 170673303#3 170673303#4 777606947#0 777606947#1 777606942 777606943#0 777606943#1 1295670836 777606944 66205249 570153676 609095416 176496278#0 176496278#1 176496278#2 176496278#3 176496278#4 777606939 777606946"/>
    </vehicle>
    <vehicle id="17" depart="34.00">
        <route edges="1123790699 -1123790699 69665391#8 545547620#0 545547619 232638532#5 232638532#6 609095402 570179509#0 570179509#1 570179509#2 570179509#3 570179509#4 570179509#5 570179509#6 570179509#7 570179509#8 570179509#9 570179509#10 1426831130 1426831127#0 1426831128 1113593720#0 1113593720#1 1113593720#2 1202737647 1202737649 69969731#0 69969731#1 69969731#2 69969731#3 69969731#4 171773166#2"/>
    </vehicle>
    <vehicle id="18" depart="36.00">
        <route edges="69665373#0 69665373#1 69665373#2 69665373#3 69665373#4 1200738847 69665391#6 69665391#7 69665391#8 545547620#0 545547619 232638532#5 232638532#6 609095402 570179509#0 570179509#1 570179509#2 -28124160#6 -28124160#5 28124160#5"/>
    </vehicle>
    <vehicle id="19" depart="38.00">
        <route edges="69968966#1 -69968966#1 -69968966#0 -28124160#2 -28124160#1 -28124160#0 -1417035704#0 1417035704#0 1417035704#1 1417035704#2 44819886#0 706618138 170673296#1 570179503 669404381#1 669404381#2 570179510#0 570179510#1 570179510#2 570179510#3 570179510#4 1295671251#0 1295671251#1 1295671251#2 1295671251#3 1295671251#4 170673303#0 170673303#1 170673303#2 170673303#3 170673303#4 777606947#0 777606947#1 777606942 777606943#0 777606943#1 1295670836 777606944 66205249 570153676 609095416 176496278#0 176496278#1 176496278#2 176496278#3 176496278#4"/>
    </vehicle>
    <vehicle id="20" depart="40.00">
        <route edges="570199920#4 570199920#5 570199920#6 570199920#7 570199920#8 570199920#9 982712831#0 982712831#1 1426831127#0 1426831128 1113593720#0 1113593720#1 1113593720#2 96192457#0 96192457#1 96192457#2 96192457#3 570179511 982712824 570179508#0 570179508#1 570179508#2 1200738846 1200738847 69665391#6 1238231835#0 69583968 171771918#0 171771918#1 -1307419026"/>
    </vehicle>
    <vehicle id="21" depart="42.00">
        <route edges="-69665335#0 1097172695 -1097172694 689120835#1 505056931 69665362#0 170673302 570179505 570179512#1 570179512#2 1323832785#0 69969739 689120833#0 689120833#1 689120833#2 171773168#0 171773168#1 171773168#2 171773160#1 171773160#2 1202737648 -69969741"/>
    </vehicle>
    <vehicle id="23" depart="46.00">
        <route edges="-171771902 -171771937#0 -1238231835#2 -1238231835#1 -1238231835#0 69665391#7 69665391#8 545547620#0 545547619 232638532#5 232638532#6 609095402 570179509#0 570179509#1 570179509#2 570179509#3 570179509#4 570179509#5 570179509#6 570179509#7 570179509#8 570179509#9 570179509#10 1426831130 1426831127#0 1426831128 1113593720#0 1113593720#1 1113593720#2 1202737647 1202737649 69969731#0 -69969731#0"/>
    </vehicle>
    <vehicle id="24" depart="48.00">
        <route edges="505056931 69665362#0 69665362#1 570179508#0 570179508#1 570179508#2 570179508#3 545547620#0 545547619 232638532#5 232638532#6 609095402 570179509#0 570179509#1 570179509#2 570179509#3 570179509#4 570179509#5 -69968967 28123974#1 -43306732 369267150#2 369267150#3 -369267148 -1097335710#1 -1097335710#0 1097335710#0"/>
    </vehicle>
    <vehicle id="25" depart="50.00">
        <route edges="1099995824#1 570199918#0 570199918#1 570199918#2 570199918#3 570199918#4 570199918#5 170673296#0 170673296#1 170673296#2 570179509#1 570179509#2 570179509#3 570179509#4 570179509#5 570179509#6 -1408725971#0 96192457#1 96192457#2 96192457#3 570179511 982712824 570179508#0 570179508#1 570179508#2 1200738846 -69665373#4 -545541215#0 -545541210 -69665328#2 -69665328#1"/>
    </vehicle>
    <vehicle id="26" depart="52.00">
        <route edges="-69969717#0 172287835#1 -69969742 -171773166#4 -171773166#3 -171773166#2 -171773166#1 -171773166#0 171773168#1 171773168#2 -171773160#0 1171479403#1 1171479403#2 1171479403#3 1171479403#4 669404376#0 669404376#1 669404376#2 669404376#3 669404376#4 649246360 570199920#4 570199920#5 570199920#6 70118724#0 70118724#1 70118724#2 70118724#3 70118724#4 70118724#5"/>
    </vehicle>
    <vehicle id="27" depart="54.00">
        <route edges="545547619 232638532#5 232638532#6 609095402 570179509#0 570179509#1 570179509#2 570179509#3 570179509#4 570179509#5 -69968967 28123974#1 -43306732 369267150#2 28123978"/>
    </vehicle>
    <vehicle id="28" depart="56.00">
        <route edges="-28124160#2 -28124160#1 -28124160#0 -1417035704#0 1417035704#0 1417035704#1 1417035704#2 44819886#0 706618138 170673296#1 570179503 669404381#1 669404381#2 570179510#0 570179510#1 570179510#2 570179510#3 570179510#4 570179510#5 609095409#0"/>
    </vehicle>
    <vehicle id="29" depart="58.00">
        <route edges="-28123974#2 -28123974#1 69968967 570179509#6 570179509#7 570179509#8 570179509#9 570179509#10 1426831130 1426831127#0 1426831127#1 982712829 982712830#0 1171479400 1171479399#0"/>
    </vehicle>
    <vehicle id="30" depart="60.00">
        <route edges="982712829 982712830#0 982712830#1 982712830#2 982712830#3 777608508 689120833#0 689120833#1 689120833#2 171773168#0 171773168#1 171773168#2 171773160#1 171773160#2 -1202737647 96192457#0 1408725971#0 1408725971#1 369267150#0 369267150#1 43306732"/>
    </vehicle>
    <vehicle id="31" depart="62.00">
        <route edges="172287836#2 1202737652 1202737650#0 1202737650#1 -172287837#3 -172287837#2 -172287837#1 -172287837#0 1426828501 -1432243363 -171773154 96192457#2 96192457#3 570179511 982712824 570179508#0 570179508#1 570179508#2 570179508#3 545547620#0 545547619 232638532#5 232638532#6 609095402 570179509#0 570179509#1 570179509#2"/>
    </vehicle>
    <vehicle id="32" depart="64.00">
        <route edges="69665391#0 69665391#1 -69665349#3 -69665349#2 -69665349#1 -69665349#0 -1097172694 689120835#1 505056931 69665362#0 170673302 570179505 570179512#1 570179512#2 1323832785#0 1323832785#1 982712828 1452272008 982712827#0 1171479398 686923162"/>
    </vehicle>
    <vehicle id="33" depart="66.00">
        <route edges="-69665335#0 1097172695 -1097172694 689120835#1 505056931 69665362#0 170673302 570179505 570179512#1 570179512#2 1323832785#0 69969739 689120833#0 689120833#1 -1202737651"/>
    </vehicle>
    <vehicle id="34" depart="68.00">
        <route edges="-70118718#4 -70118718#3 -70118718#2 -70118718#1 -70118718#0 -70118724#0 570199920#7 570199920#8 570199920#9 982712831#0 982712831#1 1426831127#0 1426831128 1113593720#0 1113593720#1 1113593720#2 96192457#0 96192457#1 171773154 1432243363 -1426828501 172287837#0 172287837#1 172287837#2 -69969722#1 -69969722#0"/>
    </vehicle>
    <vehicle id="35" depart="70.00">
        <route edges="-686873869#2 -686873869#1 -706618139 44819886#0 706618138 170673296#1 170673296#2 570179509#1 570179509#2 570179509#3 570179509#4 570179509#5 570179509#6 570179509#7 570179509#8 570179509#9 570179509#10 669404376#0 669404376#1 669404376#2 669404376#3 669404376#4 649246360 570199920#4 570199920#5 570199920#6 70118724#0 70118724#1 70118724#2 70118724#3 70118724#4 70118705#0 70118705#1 70118731#3"/>
    </vehicle>
    <vehicle id="36" depart="72.00">
        <route edges="69969726#0 -69969731#2 -69969731#1 -69969731#0 -1202737649 -171773160#2 -171773160#1 -171773160#0 1171479403#1 1171479403#2 1171479403#3 1171479403#4 669404376#0 669404376#1 669404376#2 669404376#3 669404376#4 649246360 570199920#4 570199920#5 570199920#6 70118724#0 70118724#1 70118724#2 70118724#3 70118724#4 70118705#0 70118706#0 70118706#1 70118706#2 -70118731#0 -70118718#4"/>
    </vehicle>
    <vehicle id="37" depart="74.00">
        <route edges="570179500#1 570179500#2 570179510#0 570179510#1 570179510#2 570179510#3 570179510#4 1295671251#0 1295671251#1 1295671251#2 1295671251#3 1295671251#4 170673303#0 170673303#1 170673303#2 170673303#3 170673303#4 777606947#0 777606947#1 777606942 777606943#0 777606943#1 1295670836 777606944 66205249 570153676 609095416 176496278#0 176496278#1 176496278#2 1295670837 66205250 777606938 66205266#0 66205266#1 66205266#2 570199919 570199918#0 570199918#1 570199918#2 570199918#3 570199918#4 570199918#5 170673296#0 170673296#1 170673296#2 570179509#1 570179509#2 570179509#3 570179509#4 570179509#5 570179509#6 -1408725971#0 96192457#1 96192457#2 96192457#3 570179511 982712824 570179508#0 570179508#1 570179508#2 1200738846 69665340#0 69665340#1 69583970#0 69583970#1 171771915 69584765#1 69584765#2 1186706390#0"/>
    </vehicle>
    <vehicle id="39" depart="78.00">
        <route edges="-69968967 69968967 570179509#6 -1408725971#0 96192457#1 96192457#2 96192457#3 570179511 982712824 570179508#0 570179508#1 570179508#2 1200738846 -69665373#4 545541215#1 545541215#2 545541215#3 69665385#0 69665385#1 69665385#2 -69665385#2"/>
    </vehicle>
    <vehicle id="40" depart="80.00">
        <route edges="172287837#2 -69969722#1 -69969722#0 -69969717#1"/>
    </vehicle>
    <vehicle id="41" depart="82.00">
        <route edges="28123934#0 28123934#1 28123954#0 28123954#1 28123954#2 -369267150#0 -1408725971#1 -1408725971#0 96192457#1 171773154 1432243363 69969734#0 69969734#1 69969734#2"/>
    </vehicle>
    <vehicle id="42" depart="84.00">
        <route edges="1194277554 706612300 570179509#2 570179509#3 570179509#4 570179509#5 570179509#6 -1408725971#0 96192457#1 96192457#2 96192457#3 570179511 982712824 570179508#0 570179508#1 570179508#2 1200738846 69665340#0 69665340#1 69665340#2 -69665335#4 -69665335#3 -69665335#2"/>
    </vehicle>
    <vehicle id="43" depart="86.00">
        <route edges="982712832 1426831128 1113593720#0 1113593720#1 1113593720#2 96192457#0 96192457#1 96192457#2 96192457#3 570179511 982712824 570179508#0 570179508#1 570179508#2 1200738846 1200738847 69665391#6 1238231835#0 1238231835#1 1238231835#2 171771937#0 171771937#1 171771905 171771899#1"/>
    </vehicle>
    <vehicle id="45" depart="90.00">
        <route edges="-171771918#1 1307419027 69583979#4 69665391#5 69665391#6 69665391#7 69665391#8 545547620#0 545547619 232638532#5 232638532#6 609095402 570179509#0 570179509#1 -706612300 -1194277554 -44819886#2 -44819886#1 -44819886#0 706618139 -686873869#0 28123982 369267150#5"/>
    </vehicle>
    <vehicle id="46" depart="92.00">
        <route edges="69665321 69665331#3 1097172695 1097172693#0 1238232356#0 1238232356#1 1238232356#2"/>
    </vehicle>
    <vehicle id="48" depart="96.00">
        <route edges="982712831#0 982712831#1 1426831127#0 1426831127#1 982712829 982712830#0 1171479400 1171479399#0 -171772311 171772311"/>
    </vehicle>
    <vehicle id="49" depart="98.00">
        <route edges="777606943#0 777606943#1 1295670836 777606944 66205249 570153676 609095416 176496278#0 176496278#1 176496278#2 1295670837 66205250 777606938 66205266#0 66205266#1 66205266#2 570199919 570199918#0 570199918#1 570199918#2 570199918#3 570199918#4 570199918#5 170673296#0 170673296#1 170673296#2 570179509#1 570179509#2 570179509#3 570179509#4 -69968957#1 -69968957#0 69968957#0"/>
    </vehicle>
    <vehicle id="50" depart="100.00">
        <route edges="-1123790698#0 1123790698#0 -1123790699 69665391#8 545547620#0 545547619 232638532#5 232638532#6 609095402 570179509#0 570179509#1 570179509#2 570179509#3 570179509#4 570179509#5 570179509#6 570179509#7 570179509#8 570179509#9 570179509#10 669404376#0 669404376#1 669404376#2 669404376#3 669404376#4 649246360 570199920#4"/>
    </vehicle>
    <vehicle id="51" depart="102.00">
        <route edges="570179510#2 570179510#3 570179510#4 1295671251#0 1295671251#1 1295671251#2 1295671251#3 1295671251#4 170673303#0 170673303#1 170673303#2 170673303#3 170673303#4 777606947#0 777606947#1 777606942 777606943#0 777606943#1 1295670836 777606944 66205249 570153676 609095416 176496278#0 176496278#1 176496278#2 1295670837 66205250 777606938 421455582#0 421455582#1 421455582#2 421455582#3 421455582#4 570199920#4 570199920#5 570199920#6 570199920#7 570199920#8 570199920#9 982712831#0 982712831#1 1426831127#0 1426831128 1113593720#0 1113593720#1 1113593720#2 1202737647 1202737649 69969731#0 69969731#1 171773153#0 171773153#1"/>
    </vehicle>
    <vehicle id="52" depart="104.00">
        <route edges="-69969717#0 -172287835#0 -172287837#0 1426828501 -1432243363 -171773154 96192457#2 96192457#3 570179511 982712824 570179508#0 570179508#1 570179508#2 570179508#3 545547620#0 545547619 232638532#5 232638532#6 609095402 570179509#0 570179509#1 -706612300 -1194277554 -44819886#2 -44819886#1 -44819886#0 44819886#0"/>
    </vehicle>
    <vehicle id="53" depart="106.00">
        <route edges="-171771937#0 -1238231835#2 -1238231835#1 -1238231835#0 69665391#7 69665391#8 545547620#0 545547619 232638532#5 232638532#6 609095402 669404381#0 669404381#1 669404381#2 570179510#0 570179510#1 570179510#2 570179510#3 570179510#4 1295671251#0 1295671251#1 1295671251#2 1295671251#3"/>
    </vehicle>
    <vehicle id="55" depart="110.00">
        <route edges="69969726#0 69969731#3 69969731#4 171773166#2 171773166#3 172287836#2 1202737652 -69969717#2"/>
    </vehicle>
    <vehicle id="57" depart="114.00">
        <route edges="70118706#0 -70118691#3 -70118724#5 -70118724#4 -70118724#3 -70118724#2 -70118724#1 -70118724#0 570199920#7 570199920#8 570199920#9 982712831#0 982712831#1 1426831127#0 1426831128 1113593720#0 1113593720#1 1113593720#2 96192457#0 96192457#1 171773154 1432243363 -1426828501 172287837#0 172287835#0 69969717#0"/>
    </vehicle>
    <vehicle id="58" depart="116.00">
        <route edges="-70118691#1 -70118718#3 -70118718#2 -70118718#1 -70118718#0 -70118724#0 570199920#7 570199920#8 570199920#9 982712831#0 982712831#1 1426831127#0 1426831128 1113593720#0 1113593720#1 1113593720#2 96192457#0 96192457#1 96192457#2 96192457#3 570179511 982712824 570179508#0 570179508#1 570179508#2 570179508#3 545547620#0 545547619 232638532#5 232638532#6 609095402 669404381#0 669404381#1 669404381#2 570179510#0 570179510#1 570179510#2 570179510#3 570179510#4 1295671251#0 1295671251#1 1295671251#2 1295671251#3 1295671251#4 170673303#0 170673303#1 170673303#2 170673303#3 170673303#4 777606947#0 777606947#1 777606942 777606943#0 777606943#1 1295670836 777606944 66205249 570153676 609095416 176496278#0 176496278#1 176496278#2 1295670837 66205250 777606938 421455582#0 421455582#1 421455582#2 421455582#3 421455582#4"/>
    </vehicle>
    <vehicle id="59" depart="118.00">
        <route edges="28124160#6 570179509#3 570179509#4 570179509#5 -69968967 28123974#1 -43306732 369267150#2 369267150#3 369267150#4 -28123982"/>
    </vehicle>
    <vehicle id="60" depart="120.00">
        <route edges="689120833#2 171773168#0 171773168#1 -69969726#2 -69969726#1 -69969726#0 171773153#3"/>
    </vehicle>
    <vehicle id="61" depart="122.00">
        <route edges="69583995 69584002 69583972 69583979#1 69583979#2 69583979#3 69583979#4 69665391#5 69665391#6 69665391#7 69665391#8 545547620#0 545547619 232638532#5 232638532#6 609095402 570179509#0 570179509#1 570179509#2 570179509#3 570179509#4 570179509#5 570179509#6 570179509#7 570179509#8 570179509#9 570179509#10 1426831130 1426831127#0 1426831127#1 982712829 982712830#0 982712830#1 982712830#2 171772313"/>
    </vehicle>
    <vehicle id="62" depart="124.00">
        <route edges="-1072634860 172287836#1 -171773166#3 -171773166#2 -171773166#1 -171773166#0 171773168#1 171773168#2 -171773160#0 1171479403#1 1171479403#2 1171479403#3 1171479403#4 669404376#0 669404376#1 669404376#2 669404376#3 669404376#4 649246360 570199920#4 570199920#5 570199920#6 70118724#0 70118724#1 70118724#2 70118724#3 -70118724#3"/>
    </vehicle>
    <vehicle id="63" depart="126.00">
        <route edges="-1171479399#1 -1171479399#0 -1171479400 982712830#1 982712830#2 982712830#3 777608508 689120833#0 689120833#1 689120833#2 171773168#0 171773168#1 171773168#2 -171773160#0 1171479403#1 1171479403#2 1171479403#3 1171479403#4 669404376#0 669404376#1 669404376#2 669404376#3 669404376#4 649246360 570199920#4 570199920#5 570199920#6 70118724#0 70118724#1 -70118730 -70118720#0 70118721#1"/>
    </vehicle>
    <vehicle id="64" depart="128.00">
        <route edges="69969726#2 -69969726#2 -69969726#1 -69969731#2 -69969731#1 -69969731#0 -1202737649 -1202737647 96192457#0 96192457#1 96192457#2 96192457#3 570179511 982712824 570179508#0 570179508#1 570179508#2 1200738846 69665340#0 69665340#1 69665340#2 69665340#3 -69665349#2 -69665349#1 -69665349#0 -1097172694 689120835#1 505056931 69665362#0"/>
    </vehicle>
    <vehicle id="66" depart="132.00">
        <route edges="69969726#1 -69969726#1 -69969731#2 -69969731#1 -69969731#0 -1202737649 -1202737647 96192457#0 1408725971#0 1408725971#1 369267150#0 369267150#1 369267150#2 369267150#3 369267150#4 369267150#5 369267150#6 369267150#7 369267150#8 369267150#9 570199918#3 570199918#4 570199918#5 170673296#0 -706618138 44819886#1 44819886#2 1194277554 706612300"/>
    </vehicle>
    <vehicle id="67" depart="134.00">
        <route edges="-1408725971#1 -1408725971#0 96192457#1 96192457#2 96192457#3 570179512#0 570179512#1 570179512#2 1323832785#0 1323832785#1 982712828 1452272008 1452272006"/>
    </vehicle>
    <vehicle id="69" depart="138.00">
        <route edges="689120835#1 505056931 69665362#0 170673302 570179505 570179512#1 -69969734#2 -69969734#1 -69969734#0 -1426828501 172287837#0 172287835#0 172287835#1 -69969742 -171773166#4"/>
    </vehicle>
    <vehicle id="70" depart="140.00">
        <route edges="1426828501 -1426828501 172287837#0 172287835#0 172287835#1 -69969742 -171773166#4 -171773166#3 -171773166#2 -171773166#1 -171773166#0 171773166#0"/>
    </vehicle>
    <vehicle id="71" depart="142.00">
        <route edges="-69968967 69968967 570179509#6 -1408725971#0 96192457#1 171773154 1432243363 -1426828501 172287837#0 172287835#0 69969717#0 69969717#1 69969717#2"/>
    </vehicle>
    <vehicle id="73" depart="146.00">
        <route edges="171773160#1 171773160#2 -1202737647 96192457#0 96192457#1 96192457#2 96192457#3 570179511 982712824 570179508#0 570179508#1 570179508#2 570179508#3 545547620#0 545547619 232638532#5 232638532#6 609095402 669404381#0 669404381#1 669404381#2 570179510#0 570179510#1 570179510#2 570179510#3 570179510#4 570179510#5 609095409#0 609095409#1"/>
    </vehicle>
    <vehicle id="74" depart="148.00">
        <route edges="-545541215#2 -545541215#1 69665373#4 1200738847 69665391#6 69665391#7 69665391#8 545547620#0 545547619 232638532#5 232638532#6 609095402 570179509#0 570179509#1 570179509#2 570179509#3 570179509#4 570179509#5 570179509#6 570179509#7 570179509#8 570179509#9 570179509#10 669404376#0 669404376#1 669404376#2 669404376#3 669404376#4 649246360 570199920#4 570199920#5 570199920#6 70118724#0 70118718#0 70118718#1 70118718#2 -70118718#2"/>
    </vehicle>
    <vehicle id="75" depart="150.00">
        <route edges="982712831#0 982712831#1 1426831127#0 1426831128 1113593720#0 1113593720#1 1113593720#2 96192457#0 96192457#1 96192457#2 96192457#3 570179511 982712824 570179508#0 570179508#1 570179508#2 1200738846 -69665373#4 -545541215#0 -545541210 545541211"/>
    </vehicle>
    <vehicle id="76" depart="152.00">
        <route edges="1323832785#0 69969739 689120833#0 -1202737654 -172287837#3 -172287837#2 -172287837#1 -172287837#0 1426828501 -1432243363 -171773154 96192457#2 96192457#3 570179511 982712824 570179508#0 570179508#1 570179508#2 1200738846 1200738847 69665391#6 1238231835#0 1238231835#1 1238231835#2 171771937#0 171771937#1 171771905"/>
    </vehicle>
    <vehicle id="77" depart="154.00">
        <route edges="-171773152 -171773153#0 -69969731#1 -69969731#0 -1202737649 -1202737647 96192457#0 96192457#1 96192457#2 96192457#3 570179511 982712824 570179508#0 570179508#1 570179508#2 1200738846 69665340#0 69665340#1 69665340#2 69665340#3 -69665349#2 -69665349#1 -69665349#0"/>
    </vehicle>
    <vehicle id="78" depart="156.00">
        <route edges="-706612300 -1194277554 -44819886#2 -44819886#1 706618138 170673296#1 170673296#2 570179509#1 570179509#2 570179509#3 570179509#4 570179509#5 570179509#6 570179509#7 570179509#8 570179509#9 570179509#10 669404376#0 669404376#1 669404376#2 669404376#3 669404376#4 669404376#5 669404376#6 669404376#7 669404376#8 669404376#9 28123923#0 28123923#1"/>
    </vehicle>
    <vehicle id="79" depart="158.00">
        <route edges="-69665335#1 69665335#1 69665335#2 69665335#3 -69665335#3"/>
    </vehicle>
    <vehicle id="81" depart="162.00">
        <route edges="-69665335#0 1097172695 -1097172694 689120835#1 505056931 69665362#0 170673302 570179505 570179512#1 -69969734#2 -69969734#1 -69969734#0 -1426828501 172287837#0 172287835#0 69969717#0 69969743"/>
    </vehicle>
    <vehicle id="83" depart="166.00">
        <route edges="-69665349#3 -69665349#2 -69665349#1 -69665349#0 -1097172694 689120835#1 505056931 982712825 170673280 170673278 609095409#0 686856047 170673303#0 170673303#1 170673303#2 170673303#3 170673303#4 777606947#0 777606947#1 777606942 777606943#0 777606943#1 1295670836 777606944 66205249 570153676"/>
    </vehicle>
    <vehicle id="84" depart="168.00">
        <route edges="-69583968 -1238231835#0 69665391#7 69665391#8 545547620#0 545547619 232638532#5 232638532#6 609095402 570179509#0 570179509#1 570179509#2 570179509#3 570179509#4 570179509#5 570179509#6 570179509#7 570179509#8 570179509#9 570179509#10 1426831130 1426831127#0 1426831128 1113593720#0 1113593720#1 1113593720#2 1202737647 -171773160#2 -171773160#1 -171773168#2"/>
    </vehicle>
    <vehicle id="85" depart="170.00">
        <route edges="70118724#4 -70118724#4 -70118724#3 -70118724#2 -70118724#1 -70118724#0 570199920#7 570199920#8 570199920#9 982712831#0 982712831#1 1426831127#0 1426831128 1113593720#0 1113593720#1 1113593720#2 96192457#0 96192457#1 96192457#2 96192457#3 570179511 982712824 570179508#0 570179508#1 570179508#2 570179508#3 545547620#0 545547619 232638532#5 232638532#6 609095402 669404381#0 669404381#1 669404381#2 570179510#0 570179510#1 570179510#2 570179510#3 570179510#4 1295671251#0 1295671251#1 1295671251#2 1295671251#3 1295671251#4 170673303#0 170673303#1 170673303#2 170673303#3 170673303#4 777606947#0 777606947#1 777606942 777606943#0 777606943#1 1295670836 777606944 66205249 609095415 176496273"/>
    </vehicle>
    <vehicle id="86" depart="172.00">
        <route edges="1417035704#2 44819886#0 706618138 170673296#1 170673296#2 570179509#1 570179509#2 570179509#3 570179509#4 570179509#5 570179509#6 -1408725971#0 96192457#1 96192457#2 96192457#3 570179511 982712824 570179508#0 570179508#1 570179508#2 1200738846 69665340#0 69665340#1 69583970#0"/>
    </vehicle>
    <vehicle id="87" depart="174.00">
        <route edges="69665335#3 69665335#4 69665340#3 69665349#3 69665391#2 69665391#3 69665391#4 69665391#5 69665391#6 69665391#7 69665391#8 545547620#0 545547619 232638532#5 232638532#6 609095402 570179509#0 570179509#1 570179509#2 570179509#3 570179509#4 570179509#5 570179509#6 570179509#7 570179509#8 570179509#9 570179509#10 669404376#0 669404376#1 669404376#2 669404376#3 669404376#4 649246360 -649246360"/>
    </vehicle>
    <vehicle id="88" depart="176.00">
        <route edges="-171771899#1 -171771905 -171771937#1 -171771937#0 -1238231835#2 -1238231835#1 -1238231835#0 69665391#7 69665391#8 545547620#0 545547619 232638532#5 232638532#6 609095402 669404381#0 669404381#1 669404381#2 570179510#0 570179510#1 570179510#2 570179510#3 570179510#4 1295671251#0"/>
    </vehicle>
    <vehicle id="90" depart="180.00">
        <route edges="66205266#0 66205266#1 66205266#2 570199919 570199918#0 570199918#1 570199918#2 570199918#3 570199918#4 570199918#5 170673296#0 170673296#1 570179503"/>
    </vehicle>
    <vehicle id="91" depart="182.00">
        <route edges="982712824 570179508#0 570179508#1 570179508#2 1200738846 1200738847 69665391#6 1238231835#0 1238231835#1 1238231835#2 171771937#0 -171771937#0"/>
    </vehicle>
    <vehicle id="92" depart="184.00">
        <route edges="1200738847 69665391#6 69665391#7 69665391#8 545547620#0 545547619 232638532#5 232638532#6 609095402 570179509#0 570179509#1 -706612300 -1194277554 -44819886#2 -44819886#1 -44819886#0 706618139 -706618139"/>
    </vehicle>
    <vehicle id="93" depart="186.00">